@<TRIPOS>MOLECULE
****
45 48 1 0 0
SMALL
USER_CHARGES


@<TRIPOS>ATOM
      1 C          -4.5900   -0.5821    0.1288 C.2       1     ****    0.0000
      2 C          -4.9865    0.7105    0.2982 C.2       1     ****    0.0000
      3 C          -5.5290   -1.5639    0.0718 C.ar      1     ****    0.0000
      4 C          -3.2792   -0.9437    0.1141 C.ar      1     ****    0.0000
      5 C          -4.1196    1.6922    1.0896 C.3       1     ****    0.0000
      6 C          -6.1676    1.1820   -0.1702 C.ar      1     ****    0.0000
      7 C          -5.3565   -2.6840   -0.6614 C.ar      1     ****    0.0000
      8 C          -6.2879   -3.6483   -0.7225 C.ar      1     ****    0.0000
      9 C          -7.4435   -3.5498   -0.0472 C.ar      1     ****    0.0000
     10 C          -7.6249   -2.4453    0.6927 C.ar      1     ****    0.0000
     11 C          -6.6931   -1.4816    0.7504 C.ar      1     ****    0.0000
     12 C          -2.8584   -2.1399    0.5800 C.ar      1     ****    0.0000
     13 C          -1.5688   -2.5111    0.5642 C.ar      1     ****    0.0000
     14 C          -0.6143   -1.7035    0.0783 C.ar      1     ****    0.0000
     15 C          -1.0122   -0.5091   -0.3851 C.ar      1     ****    0.0000
     16 C          -2.3037   -0.1444   -0.3628 C.ar      1     ****    0.0000
     17 N          -3.8602    2.9607    0.3812 N.ar      1     ****    0.0000
     18 C          -3.8425    3.1326   -0.8736 C.ar      1     ****    0.0000
     19 N          -3.6049    4.3465   -1.1450 N.ar      1     ****    0.0000
     20 C          -3.4756    4.9211   -0.0218 C.ar      1     ****    0.0000
     21 C          -3.6354    4.0500    0.9860 C.ar      1     ****    0.0000
     22 O          -8.3940   -4.5204   -0.1056 O.3       1     ****    0.0000
     23 O           0.6943   -2.0722    0.0533 O.3       1     ****    0.0000
     24 C          -6.9701    0.6340   -1.1017 C.ar      1     ****    0.0000
     25 S          -8.1832    1.3959   -1.4162 S.2       1     ****    0.0000
     26 C          -7.8937    2.5105   -0.5145 C.ar      1     ****    0.0000
     27 C          -6.7504    2.3460    0.1607 C.ar      1     ****    0.0000
     28 H          -4.6728    1.8941    2.0383 H         1     ****    0.0000
     29 H          -3.1595    1.2670    1.4520 H         1     ****    0.0000
     30 H          -4.4566   -2.8270   -1.2842 H         1     ****    0.0000
     31 H          -6.1106   -4.5378   -1.3507 H         1     ****    0.0000
     32 H          -8.5565   -2.3353    1.2736 H         1     ****    0.0000
     33 H          -6.9098   -0.6297    1.4171 H         1     ****    0.0000
     34 H          -3.5560   -2.8583    1.0433 H         1     ****    0.0000
     35 H          -1.2785   -3.4959    0.9684 H         1     ****    0.0000
     36 H          -0.2587    0.1788   -0.8053 H         1     ****    0.0000
     37 H          -2.5366    0.8341   -0.8068 H         1     ****    0.0000
     38 H          -4.0161    2.3455   -1.6148 H         1     ****    0.0000
     39 H          -3.2644    5.9936    0.0780 H         1     ****    0.0000
     40 H          -3.6001    4.1810    2.0715 H         1     ****    0.0000
     41 H          -9.1570   -4.2484    0.4298 H         1     ****    0.0000
     42 H           1.2169   -1.3575   -0.3452 H         1     ****    0.0000
     43 H          -6.7540   -0.2819   -1.6691 H         1     ****    0.0000
     44 H          -8.5574    3.3798   -0.4074 H         1     ****    0.0000
     45 H          -6.3882    3.0843    0.8884 H         1     ****    0.0000
@<TRIPOS>BOND
     1     1     2     2
     2     1     3     1
     3     1     4     1
     4     2     5     1
     5     2     6     1
     6     3     7     1
     7     3    11     2
     8     4    12     1
     9     4    16     2
    10     5    17     1
    11     5    28     1
    12     5    29     1
    13     6    24     2
    14     6    27     1
    15     7     8     2
    16     7    30     1
    17     8     9     1
    18     8    31     1
    19     9    10     2
    20     9    22     1
    21    10    11     1
    22    10    32     1
    23    11    33     1
    24    12    13     2
    25    12    34     1
    26    13    14     1
    27    13    35     1
    28    14    15     2
    29    14    23     1
    30    15    16     1
    31    15    36     1
    32    16    37     1
    33    17    18     1
    34    17    21     1
    35    18    19     2
    36    18    38     1
    37    19    20     1
    38    20    21     2
    39    20    39     1
    40    21    40     1
    41    22    41     1
    42    23    42     1
    43    24    25     1
    44    24    43     1
    45    25    26     1
    46    26    27     2
    47    26    44     1
    48    27    45     1
