REMARK  7 active torsions:
REMARK  status: ('A' for Active; 'I' for Inactive)
REMARK    1  A    between atoms: C_1  and  C_3 
REMARK    2  A    between atoms: C_1  and  C_4 
REMARK    3  A    between atoms: C_2  and  C_5 
REMARK    4  A    between atoms: C_2  and  C_6 
REMARK    5  A    between atoms: C_5  and  N_17 
REMARK    6  A    between atoms: C_9  and  O_22 
REMARK    7  A    between atoms: C_14  and  O_23 
ROOT
HETATM    1  C   ***     1     -11.480  48.003 329.976  1.00  0.00    -0.007 C 
HETATM    2  C   ***     1     -11.346  48.982 330.913  1.00  0.00    -0.017 C 
ENDROOT
BRANCH   1   3
HETATM    3  C   ***     1     -10.646  47.991 328.902  1.00  0.00    -0.024 A 
HETATM    4  C   ***     1     -10.270  46.845 328.295  1.00  0.00     0.015 A 
HETATM    5  C   ***     1      -9.440  46.835 327.240  1.00  0.00     0.037 A 
HETATM    6  C   ***     1      -8.945  47.973 326.727  1.00  0.00     0.065 A 
HETATM    7  C   ***     1      -9.318  49.119 327.315  1.00  0.00     0.037 A 
HETATM    8  C   ***     1     -10.146  49.127 328.372  1.00  0.00     0.015 A 
BRANCH   6   9
HETATM    9  O   ***     1      -8.102  47.972 325.660  1.00  0.00    -0.361 OA
HETATM   10  H   ***     1      -7.842  48.886 325.462  1.00  0.00     0.217 HD
ENDBRANCH   6   9
ENDBRANCH   1   3
BRANCH   1  11
HETATM   11  C   ***     1     -12.486  47.088 330.020  1.00  0.00    -0.024 A 
HETATM   12  C   ***     1     -13.033  46.567 328.900  1.00  0.00     0.015 A 
HETATM   13  C   ***     1     -14.020  45.658 328.931  1.00  0.00     0.037 A 
HETATM   14  C   ***     1     -14.525  45.212 330.091  1.00  0.00     0.065 A 
HETATM   15  C   ***     1     -13.997  45.722 331.214  1.00  0.00     0.037 A 
HETATM   16  C   ***     1     -13.012  46.632 331.175  1.00  0.00     0.015 A 
BRANCH  14  17
HETATM   17  O   ***     1     -15.522  44.289 330.133  1.00  0.00    -0.361 OA
HETATM   18  H   ***     1     -15.733  44.093 331.060  1.00  0.00     0.217 HD
ENDBRANCH  14  17
ENDBRANCH   1  11
BRANCH   2  19
HETATM   19  C   ***     1     -12.571  49.523 331.654  1.00  0.00     0.169 C 
BRANCH  19  20
HETATM   20  N   ***     1     -12.418  49.544 333.121  1.00  0.00    -0.346 N 
HETATM   21  C   ***     1     -11.676  48.784 333.812  1.00  0.00     0.209 A 
HETATM   22  N   ***     1     -11.769  49.080 335.039  1.00  0.00    -0.255 NA
HETATM   23  C   ***     1     -12.590  50.046 335.089  1.00  0.00     0.135 A 
HETATM   24  C   ***     1     -13.028  50.369 333.863  1.00  0.00     0.111 A 
ENDBRANCH  19  20
ENDBRANCH   2  19
BRANCH   2  25
HETATM   25  C   ***     1     -10.155  49.558 331.206  1.00  0.00    -0.020 A 
HETATM   26  C   ***     1      -9.964  50.684 331.913  1.00  0.00     0.019 A 
HETATM   27  C   ***     1      -8.659  50.948 332.039  1.00  0.00     0.050 A 
HETATM   28  S   ***     1      -7.814  49.948 331.386  1.00  0.00    -0.113 SA
HETATM   29  C   ***     1      -8.920  49.106 330.917  1.00  0.00     0.061 A 
ENDBRANCH   2  25
TORSDOF 7
